Version 4.1
SHEET 1 1472 824
WIRE 768 80 112 80
WIRE 928 80 768 80
WIRE 928 112 928 80
WIRE 112 144 112 80
WIRE 768 144 768 80
WIRE 928 224 928 192
WIRE 704 272 608 272
WIRE 704 304 704 272
WIRE 768 304 768 224
WIRE 768 304 704 304
WIRE 880 304 768 304
WIRE 416 352 336 352
WIRE 560 352 496 352
WIRE 768 368 768 304
WIRE 336 384 336 352
WIRE 112 496 112 224
WIRE 336 496 336 464
WIRE 608 496 608 368
WIRE 768 496 768 448
WIRE 928 496 928 320
FLAG 112 496 0
FLAG 928 496 0
FLAG 336 496 0
FLAG 608 496 0
FLAG 768 496 0
SYMBOL voltage 112 128 R0
WINDOW 123 0 0 Left 0
WINDOW 39 0 0 Left 0
SYMATTR InstName V1
SYMATTR Value SINE(31.84 3.18 100)
SYMBOL res 912 96 R0
SYMATTR InstName RL
SYMATTR Value 15
SYMBOL voltage 336 368 R0
WINDOW 3 -232 165 Left 2
WINDOW 123 0 0 Left 0
WINDOW 39 0 0 Left 0
SYMATTR Value PULSE(0 3.3 50m 1n 1n 100m 200m)
SYMATTR InstName V2
SYMBOL nmos 880 224 R0
SYMATTR InstName M1
SYMATTR Value AON6162
SYMBOL res 512 336 R90
WINDOW 0 0 56 VBottom 2
WINDOW 3 32 56 VTop 2
SYMATTR InstName R1
SYMATTR Value 6.8k
SYMBOL res 752 128 R0
SYMATTR InstName R2
SYMATTR Value 10k
SYMBOL res 752 352 R0
SYMATTR InstName R3
SYMATTR Value 8.2k
SYMBOL nmos 560 272 R0
SYMATTR InstName M2
SYMATTR Value 2N7002
TEXT 160 432 Left 2 !.tran 1
