Version 4
SHEET 1 1032 680
WIRE 576 80 112 80
WIRE 640 80 576 80
WIRE 928 80 736 80
WIRE 112 144 112 80
WIRE 576 144 576 80
WIRE 928 240 928 80
WIRE 576 256 576 224
WIRE 720 256 720 128
WIRE 720 256 576 256
WIRE 720 304 720 256
WIRE 480 352 400 352
WIRE 608 352 560 352
WIRE 656 352 608 352
WIRE 400 384 400 352
WIRE 608 384 608 352
WIRE 112 496 112 224
WIRE 400 496 400 464
WIRE 608 496 608 464
WIRE 720 496 720 400
WIRE 928 496 928 320
FLAG 112 496 0
FLAG 928 496 0
FLAG 400 496 0
FLAG 720 496 0
FLAG 608 496 0
SYMBOL voltage 112 128 R0
WINDOW 123 0 0 Left 0
WINDOW 39 0 0 Left 0
SYMATTR InstName V1
SYMATTR Value SINE(31.84 3.18 100)
SYMBOL npn 656 304 R0
SYMATTR InstName Q1
SYMATTR Value 2N3904
SYMBOL res 560 128 R0
SYMATTR InstName R1
SYMATTR Value 1k
SYMBOL res 912 224 R0
SYMATTR InstName R2
SYMATTR Value 15
SYMBOL voltage 400 368 R0
WINDOW 3 -165 96 Left 2
WINDOW 123 0 0 Left 0
WINDOW 39 0 0 Left 0
SYMATTR Value PULSE(0 3.3 50m 1n 1n 100m 200m)
SYMATTR InstName V2
SYMBOL nmos 640 128 R270
SYMATTR InstName M1
SYMATTR Value AON6162
SYMBOL res 576 336 R90
WINDOW 0 0 56 VBottom 2
WINDOW 3 32 56 VTop 2
SYMATTR InstName R3
SYMATTR Value 10k
SYMBOL res 592 368 R0
SYMATTR InstName R4
SYMATTR Value 6.8k
TEXT 160 432 Left 2 !.tran 1
